REMARK  2 active torsions:
REMARK  status: ('A' for Active; 'I' for Inactive)
REMARK    1  A    between atoms: C3_3  and  C11_7 
REMARK       I    between atoms: C11_7  and  N13_9 
REMARK    2  A    between atoms: N13_9  and  N15_11 
ROOT
ATOM      1  C1  RES d   1      -0.849   0.431   0.000  0.00  0.00     0.117 A 
ATOM      2  C2  RES d   1       0.494   0.798  -0.057  0.00  0.00     0.036 A 
ATOM      3  C3  RES d   1       1.443  -0.158  -0.439  0.00  0.00     0.036 A 
ATOM      4  C4  RES d   1       0.981  -1.436  -0.774  0.00  0.00     0.036 A 
ATOM      5  C5  RES d   1      -0.389  -1.691  -0.699  0.00  0.00     0.117 A 
ATOM      6  N6  RES d   1      -1.301  -0.790  -0.313  0.00  0.00    -0.273 NA
ENDROOT
BRANCH   3   7
ATOM      7  C11 RES d   1       2.868   0.312  -0.542  0.00  0.00     0.265 C 
ATOM      8  O12 RES d   1       3.127   1.493  -0.746  0.00  0.00    -0.266 OA
ATOM      9  N13 RES d   1       3.906  -0.592  -0.448  0.00  0.00    -0.290 N 
ATOM     10  H14 RES d   1       4.812  -0.128  -0.462  0.00  0.00     0.183 HD
BRANCH   9  11
ATOM     11  N15 RES d   1       3.788  -1.853   0.161  0.00  0.00    -0.247 NA
ATOM     12  H16 RES d   1       4.300  -2.536  -0.394  0.00  0.00     0.143 HD
ATOM     13  H17 RES d   1       4.190  -1.834   1.098  0.00  0.00     0.143 HD
ENDBRANCH   9  11
ENDBRANCH   3   7
TORSDOF 2
