# Title
# Created by GaussView 6.0.16
#

#
#

@<TRIPOS>MOLECULE
Molecule Name
17 17
SMALL
NO_CHARGES


@<TRIPOS>ATOM
1 C1    -0.8487     0.4314     0.0000 C
2 C2     0.4941     0.7977    -0.0569 C
3 C3     1.4426    -0.1581    -0.4386 C
4 C4     0.9812    -1.4357    -0.7737 C
5 C5    -0.3888    -1.6907    -0.6991 C
6 N6    -1.3008    -0.7903    -0.3130 N
7 H7    -1.6013     1.1560     0.3063 H
8 H8     0.8138     1.8066     0.1793 H
9 H9     1.6642    -2.2162    -1.0809 H
10 H10    -0.7722    -2.6754    -0.9618 H
11 C11     2.8678     0.3122    -0.5421 C
12 O12     3.1274     1.4927    -0.7459 O
13 N13     3.9063    -0.5924    -0.4476 N
14 H14     4.8121    -0.1275    -0.4615 H
15 N15     3.7882    -1.8532     0.1605 N
16 H16     4.3004    -2.5356    -0.3938 H
17 H17     4.1902    -1.8339     1.0977 H
@<TRIPOS>BOND
1 1 2 Ar
2 1 6 Ar
3 1 7 1
4 2 3 Ar
5 2 8 1
6 3 4 Ar
7 3 11 1
8 4 5 Ar
9 4 9 1
10 5 6 Ar
11 5 10 1
12 11 12 2
13 11 13 Ar
14 13 14 1
15 13 15 1
16 15 16 1
17 15 17 1
